DDNS_CONFIG_FILE_PATH="${MODPATH:-/data/adb/modules/ddns-go}/config.yaml"
DDNS_IP_CACHE_TIMES=100
DDNS_LOG_FILE="${TMPDIR:-/data/local/tmp}/ddns-go.log"
DDNS_PID_FILE="${TMPDIR:-/data/local/tmp}/ddns-go.pid"
